<?xml version="1.0" encoding="UTF-8"?>

<!-- generated on 2021-10-22 10:42:38 by Eclipse SUMO netedit Version 1.9.1
<configuration xmlns:xsi="http://www.w3.org/2001/XMLSchema-instance" xsi:noNamespaceSchemaLocation="http://sumo.dlr.de/xsd/netconvertConfiguration.xsd">

    <input>
        <sumo-net-file value="C:\Users\jerem\PycharmProjects\NeuralTraffic\Roadwork.net.xml"/>
    </input>

    <output>
        <output-file value="C:\Users\jerem\PycharmProjects\NeuralTraffic\Roadwork.net.xml"/>
        <output.street-names value="true"/>
    </output>

    <processing>
        <geometry.min-radius.fix.railways value="false"/>
        <geometry.max-grade.fix value="false"/>
        <offset.disable-normalization value="true"/>
        <lefthand value="false"/>
    </processing>

    <junctions>
        <no-turnarounds value="true"/>
        <junctions.corner-detail value="5"/>
        <junctions.limit-turn-speed value="5.5"/>
        <rectangular-lane-cut value="false"/>
    </junctions>

    <pedestrian>
        <walkingareas value="false"/>
    </pedestrian>

    <netedit>
        <additional-files value="C:\Users\jerem\PycharmProjects\NeuralTraffic\Establishments.poly.xml"/>
    </netedit>

    <report>
        <aggregate-warnings value="5"/>
    </report>

</configuration>
-->

<additional xmlns:xsi="http://www.w3.org/2001/XMLSchema-instance" xsi:noNamespaceSchemaLocation="http://sumo.dlr.de/xsd/additional_file.xsd">
    <poly id="105503978" type="landuse.commercial" color="209,209,204" fill="1" layer="-3.00" shape="537.791683,484.984706 589.342860,486.877298 592.486925,430.580109 525.820408,425.556443 537.791683,484.984706"/>
    <poly id="174760700" type="amenity.fuel" color="237,199,199" fill="1" layer="-1.00" shape="519.567554,491.040607 523.967936,516.449200 469.430163,529.817002 462.261107,494.472067 476.974598,492.534945 519.567554,491.040607"/>
    <poly id="174760701" type="amenity.bank" color="237,199,199" fill="1" layer="-1.00" shape="501.266056,573.618664 521.760570,569.864203 518.664632,553.200835 498.170110,556.955299 501.266056,573.618664"/>
    <poly id="174760701#1" type="building.yes" color="255,230,230" fill="1" layer="-1.00" shape="501.266056,573.618664 521.760570,569.864203 518.664632,553.200835 498.170110,556.955299 501.266056,573.618664"/>
    <poly id="174760702" type="amenity.bank" color="237,199,199" fill="1" layer="-1.00" shape="566.935729,535.829668 555.669717,535.251525 561.231094,558.940557 570.448971,558.789122 566.935729,535.829668"/>
    <poly id="174760702#1" type="building.yes" color="255,230,230" fill="1" layer="-1.00" shape="566.935729,535.829668 555.669717,535.251525 561.231094,558.940557 570.448971,558.789122 566.935729,535.829668"/>
    <poly id="174760709" type="amenity.fuel" color="237,199,199" fill="1" layer="-1.00" shape="554.153742,635.315915 607.252954,639.119132 605.488211,676.939905 550.161849,668.844412 552.919621,649.047756 554.153742,635.315915"/>
    <poly id="293426802" type="building.yes" color="255,230,230" fill="1" layer="-1.00" shape="514.216189,611.371701 515.360785,617.074224 529.046774,614.368584 527.902179,608.666060 514.216189,611.371701"/>
    <poly id="293426840" type="building.yes" color="255,230,230" fill="1" layer="-1.00" shape="509.057184,664.782504 508.925188,675.456043 520.204415,675.591793 520.336357,664.929314 509.057184,664.782504"/>
    <poly id="293426852" type="building.yes" color="255,230,230" fill="1" layer="-1.00" shape="490.659512,604.668400 492.705768,618.494627 506.816360,616.432734 504.770052,602.617566 490.659512,604.668400"/>
    <poly id="293426860" type="building.yes" color="255,230,230" fill="1" layer="-1.00" shape="495.620279,515.307128 517.314537,510.839872 515.719213,503.177157 494.013978,507.644358 495.620279,515.307128"/>
    <poly id="293427063" type="building.yes" color="255,230,230" fill="1" layer="-1.00" shape="570.398161,475.253377 580.138333,475.956367 582.090745,476.099200 583.271963,459.867214 571.590346,459.021448 570.398161,475.253377"/>
    <poly id="293427078" type="building.yes" color="255,230,230" fill="1" layer="-1.00" shape="580.139241,535.190022 578.265177,547.480576 594.700510,549.954835 596.574580,537.664280 580.139241,535.190022"/>
    <poly id="293427180" type="building.yes" color="255,230,230" fill="1" layer="-1.00" shape="492.363410,631.655886 493.440787,641.871099 503.585070,640.806347 502.496665,630.602137 492.363410,631.655886"/>
    <poly id="293427190" type="building.yes" color="255,230,230" fill="1" layer="-1.00" shape="513.072073,599.209340 514.311990,605.576039 527.997582,602.947825 526.757667,596.581126 513.072073,599.209340"/>
    <poly id="293427224" type="building.yes" color="255,230,230" fill="1" layer="-1.00" shape="592.190277,714.933306 590.515298,729.038955 599.639004,730.114860 601.313987,716.009211 592.190277,714.933306"/>
    <poly id="293427304" type="building.yes" color="255,230,230" fill="1" layer="-1.00" shape="561.498907,579.294866 565.020902,621.777689 573.308797,621.101563 569.786811,578.618738 561.498907,579.294866"/>
    <poly id="293427311" type="building.yes" color="255,230,230" fill="1" layer="-1.00" shape="568.616209,652.203996 589.748475,656.671478 591.423872,648.848692 570.291601,644.381209 568.616209,652.203996"/>
    <poly id="293427316" type="building.yes" color="255,230,230" fill="1" layer="-1.00" shape="588.938570,618.085217 607.263461,622.239529 609.486065,612.572323 591.150198,608.417955 588.938570,618.085217"/>
    <poly id="293427348" type="building.yes" color="255,230,230" fill="1" layer="-1.00" shape="572.613443,490.341483 574.871754,505.595732 584.842579,504.131888 582.584215,488.888699 572.613443,490.341483"/>
    <poly id="293427355" type="building.yes" color="255,230,230" fill="1" layer="-1.00" shape="573.222912,586.788740 574.591997,600.003100 581.958556,599.255842 580.589474,586.041481 573.222912,586.788740"/>
    <poly id="293427367" type="building.yes" color="255,230,230" fill="1" layer="-1.00" shape="589.323819,664.522857 586.594887,674.497163 591.810543,675.917874 592.503934,673.388406 596.086990,674.358219 598.122589,666.902321 589.323819,664.522857"/>
    <poly id="315426258" type="amenity.school" color="237,199,199" fill="1" layer="-1.00" shape="562.841038,790.784192 551.064728,867.666192 524.411094,863.634732 536.198319,786.752790 562.841038,790.784192"/>
    <poly id="338281231" type="building.yes" color="255,230,230" fill="1" layer="-1.00" shape="553.268240,668.628188 551.597936,688.198178 564.912994,689.317872 566.583248,669.758942 553.268240,668.628188"/>
    <poly id="410662110" type="building.yes" color="255,230,230" fill="1" layer="-1.00" shape="476.996268,458.620907 502.956778,456.697679 502.227991,446.970969 476.267474,448.894199 476.996268,458.620907"/>
    <poly id="410662112" type="building.yes" color="255,230,230" fill="1" layer="-1.00" shape="551.737434,474.493203 550.981950,484.787433 569.178911,486.109339 569.934343,475.826170 551.737434,474.493203"/>
    <poly id="410662113" type="building.yes" color="255,230,230" fill="1" layer="-1.00" shape="551.999553,534.148532 562.527218,533.218509 561.095729,517.216363 550.557030,518.157392 551.999553,534.148532"/>
    <poly id="410662117" type="building.yes" color="255,230,230" fill="1" layer="-1.00" shape="515.005200,539.410511 525.943988,537.487080 523.416947,523.271216 512.478156,525.194648 515.005200,539.410511"/>
    <poly id="410662118" type="building.yes" color="255,230,230" fill="1" layer="-1.00" shape="542.824551,515.396312 551.618459,514.479443 550.091062,500.047518 541.308123,500.964444 542.824551,515.396312"/>
    <poly id="410662119" type="building.yes" color="255,230,230" fill="1" layer="-1.00" shape="479.896694,438.813928 502.245789,437.159628 501.465855,426.713665 479.105781,428.367910 479.896694,438.813928"/>
    <poly id="410662123" type="building.yes" color="255,230,230" fill="1" layer="-1.00" shape="556.468252,508.144233 574.047390,505.868003 572.801775,496.359843 555.222576,498.647135 556.468252,508.144233"/>
    <poly id="410662125" type="building.yes" color="255,230,230" fill="1" layer="-1.00" shape="540.417761,499.145776 554.335295,498.354951 550.950168,486.689824 537.825736,486.887437 540.417761,499.145776"/>
    <poly id="410662127" type="building.yes" color="255,230,230" fill="1" layer="-1.00" shape="480.298199,448.173920 505.259823,446.322959 504.602755,437.581082 479.641183,439.420983 480.298199,448.173920"/>
    <poly id="410662131" type="building.yes" color="255,230,230" fill="1" layer="-1.00" shape="509.405828,482.736293 503.734680,456.922927 483.086842,458.486466 472.836557,460.944417 476.489843,475.929328 486.729152,473.471322 487.040779,474.744990 495.367451,472.940782 498.069273,485.188621 509.405828,482.736293"/>
    <poly id="410662224" type="building.yes" color="255,230,230" fill="1" layer="-1.00" shape="572.178055,447.222004 585.054645,448.273053 586.458459,431.433843 573.570890,430.382737 572.178055,447.222004"/>
    <poly id="410662225" type="building.yes" color="255,230,230" fill="1" layer="-1.00" shape="482.524392,577.913142 497.594117,574.982352 495.337945,563.555356 480.279246,566.475144 482.524392,577.913142"/>
    <poly id="410662227" type="building.yes" color="255,230,230" fill="1" layer="-1.00" shape="501.054052,587.035008 507.414177,585.696280 504.907188,573.969329 498.547060,575.308058 501.054052,587.035008"/>
    <poly id="410662228" type="building.yes" color="255,230,230" fill="1" layer="-1.00" shape="508.979860,586.356995 530.452860,582.231512 530.132094,580.603832 536.700299,579.343613 534.551804,568.315379 506.510535,573.712145 508.979860,586.356995"/>
    <poly id="410662229" type="building.yes" color="255,230,230" fill="1" layer="-1.00" shape="466.767439,592.797723 480.167631,590.190139 474.607882,561.932790 454.870070,565.768618 457.500341,579.122220 463.837949,577.893981 466.767439,592.797723"/>
    <poly id="410662230" type="building.yes" color="255,230,230" fill="1" layer="-1.00" shape="480.183451,525.569712 494.045427,522.787533 489.882865,502.313547 487.938683,502.701707 486.076759,493.544332 474.158957,495.938354 480.183451,525.569712"/>
    <poly id="410662712" type="building.yes" color="255,230,230" fill="1" layer="-1.00" shape="554.027475,750.961909 554.671345,743.155910 544.865868,742.364085 544.232916,750.181202 554.027475,750.961909"/>
    <poly id="410662714" type="building.yes" color="255,230,230" fill="1" layer="-1.00" shape="555.629707,723.338887 555.371713,728.669134 580.043177,729.847573 580.301232,724.506264 555.629707,723.338887"/>
    <poly id="410662719" type="building.yes" color="255,230,230" fill="1" layer="-1.00" shape="542.128901,728.434725 541.674700,737.757112 567.629639,738.997488 568.083847,729.675100 542.128901,728.434725"/>
    <poly id="410662725" type="building.yes" color="255,230,230" fill="1" layer="-1.00" shape="553.526818,758.658035 554.100621,751.670215 543.834478,750.842824 543.260620,757.841704 553.526818,758.658035"/>
    <poly id="410662728" type="building.yes" color="255,230,230" fill="1" layer="-1.00" shape="579.884872,730.753786 579.294002,743.161592 595.836753,743.944032 596.438601,731.536283 579.884872,730.753786"/>
    <poly id="410662730" type="building.yes" color="255,230,230" fill="1" layer="-1.00" shape="535.552663,775.809754 543.274181,776.435941 544.012006,767.435800 536.290486,766.809614 535.552663,775.809754"/>
    <poly id="410662736" type="building.yes" color="255,230,230" fill="1" layer="-1.00" shape="563.896335,709.798276 583.233169,711.347333 583.643808,706.205918 564.306913,704.667923 563.896335,709.798276"/>
    <poly id="410662738" type="building.yes" color="255,230,230" fill="1" layer="-1.00" shape="542.572504,712.674564 541.848023,727.581546 554.814524,728.201675 555.528095,713.283574 542.572504,712.674564"/>
    <poly id="410662742" type="building.yes" color="255,230,230" fill="1" layer="-1.00" shape="546.726645,766.587053 547.370857,758.714687 534.856237,757.709749 534.212028,765.582114 546.726645,766.587053"/>
    <poly id="410662744" type="amenity.community_centre" color="237,199,199" fill="1" layer="-1.00" shape="552.315952,708.488448 563.347028,709.928172 565.881928,690.794046 554.850846,689.354323 552.315952,708.488448"/>
    <poly id="410662744#1" type="building.yes" color="255,230,230" fill="1" layer="-1.00" shape="552.315952,708.488448 563.347028,709.928172 565.881928,690.794046 554.850846,689.354323 552.315952,708.488448"/>
    <poly id="410662745" type="building.yes" color="255,230,230" fill="1" layer="-1.00" shape="563.347579,754.372771 571.584632,755.034814 572.264741,746.587442 564.038659,745.925457 563.347579,754.372771"/>
    <poly id="410662749" type="building.yes" color="255,230,230" fill="1" layer="-1.00" shape="583.362034,711.890007 604.682182,713.969219 605.573177,705.058360 584.253081,702.968087 583.362034,711.890007"/>
    <poly id="410662755" type="building.yes" color="255,230,230" fill="1" layer="-1.00" shape="533.975883,756.079174 542.969743,756.800431 544.141291,742.437768 535.147427,741.716511 533.975883,756.079174"/>
    <poly id="410662759" type="building.yes" color="255,230,230" fill="1" layer="-1.00" shape="578.186593,743.001004 578.801753,730.139808 568.369358,729.632331 567.940299,738.335412 570.090429,738.435025 569.893301,742.604143 578.186593,743.001004"/>
    <poly id="410662913" type="building.yes" color="255,230,230" fill="0" layer="-1.00" shape="498.470759,696.186304 493.620560,696.238657 493.502159,693.671807 488.271758,692.981083 482.819745,724.544166 496.247199,725.144533 498.991038,710.159503 522.429197,712.183250 522.920799,695.626920 498.482188,696.097872"/>
    <poly id="410662914" type="building.yes" color="255,230,230" fill="1" layer="-1.00" shape="503.880798,789.461623 493.260920,789.141238 492.678450,808.418194 503.298322,808.738580 503.880798,789.461623"/>
    <poly id="410662915" type="building.yes" color="255,230,230" fill="1" layer="-1.00" shape="527.058416,657.254298 527.261332,647.720445 522.598458,647.618905 522.395544,657.152757 527.058416,657.254298"/>
    <poly id="410662916" type="building.yes" color="255,230,230" fill="1" layer="-1.00" shape="512.659247,727.861999 515.257993,713.351857 499.175796,710.503361 496.577056,725.013502 512.659247,727.861999"/>
    <poly id="410662917" type="building.yes" color="255,230,230" fill="1" layer="-1.00" shape="506.315979,691.990362 520.691876,691.666485 520.342881,676.399989 505.966978,676.723867 506.315979,691.990362"/>
    <poly id="410662918" type="building.yes" color="255,230,230" fill="1" layer="-1.00" shape="511.294320,643.810653 523.812810,644.074484 524.015267,634.629121 511.496773,634.365290 511.294320,643.810653"/>
    <poly id="410662919" type="building.yes" color="255,230,230" fill="1" layer="-1.00" shape="499.190116,788.375477 504.291363,758.867997 487.289950,759.786676 482.190433,788.962324 499.190116,788.375477"/>
    <poly id="410662920" type="building.yes" color="255,230,230" fill="1" layer="-1.00" shape="516.185196,633.770094 526.509436,633.978335 526.696460,625.395679 516.361302,625.176320 516.185196,633.770094"/>
    <poly id="410662921" type="building.yes" color="255,230,230" fill="1" layer="-1.00" shape="521.497298,669.592154 530.701428,669.971589 531.165462,658.746697 521.961271,658.378324 521.497298,669.592154"/>
    <poly id="410662922" type="building.yes" color="255,230,230" fill="1" layer="-1.00" shape="533.829200,642.279028 533.975930,635.123080 524.715957,634.931401 524.569229,642.087349 533.829200,642.279028"/>
    <poly id="410662923" type="building.yes" color="255,230,230" fill="1" layer="-1.00" shape="477.367100,851.732778 491.346556,851.672324 491.274226,833.829960 480.006307,833.638962 477.367100,851.732778"/>
    <poly id="410662924" type="building.yes" color="255,230,230" fill="1" layer="-1.00" shape="521.494720,657.358265 521.700151,647.337726 514.129818,647.176908 513.913416,657.197390 521.494720,657.358265"/>
    <poly id="410662925" type="building.yes" color="255,230,230" fill="1" layer="-1.00" shape="494.274241,656.819317 506.991258,656.885066 507.049076,645.702320 494.332055,645.636572 494.274241,656.819317"/>
    <poly id="410662953" type="building.yes" color="255,230,230" fill="1" layer="-1.00" shape="504.466140,833.289799 507.336064,815.141870 501.316930,814.203712 498.447008,832.351642 504.466140,833.289799"/>
    <poly id="410662954" type="building.yes" color="255,230,230" fill="1" layer="-1.00" shape="497.851355,832.956937 501.126005,812.930668 492.005401,813.381269 490.621305,822.167901 494.074909,822.705643 492.588744,832.133307 497.851355,832.956937"/>
    <poi id="1215067663" type="amenity.post_office" color="237,199,199" layer="4.00" x="562.10" y="586.61"/>
    <poi id="1215067744" type="shop.lawyer" color="237,199,255" layer="4.00" x="561.99" y="582.32"/>
    <poi id="1215067775" type="amenity.fast_food" color="237,199,199" layer="4.00" x="544.90" y="492.08"/>
    <poi id="1215067859" type="amenity.business_center" color="237,199,199" layer="4.00" x="557.48" y="545.75"/>
    <poi id="1215067920" type="shop.hardware" color="237,199,255" layer="4.00" x="547.68" y="729.56"/>
    <poi id="1215067945" type="shop.hardware" color="237,199,255" layer="4.00" x="551.92" y="522.41"/>
    <poi id="1215068053" type="amenity.fast_food" color="237,199,199" layer="4.00" x="538.61" y="745.03"/>
    <poi id="1215068073" type="shop.business_center" color="237,199,255" layer="4.00" x="556.85" y="541.19"/>
    <poi id="1215068153" type="shop.electronics" color="237,199,255" layer="4.00" x="497.79" y="848.91"/>
    <poi id="1215068349" type="amenity.bank" color="237,199,199" layer="4.00" x="554.93" y="479.75"/>
    <poi id="1215068374" type="amenity.bureau_de_change" color="237,199,199" layer="4.00" x="562.34" y="590.91"/>
    <poi id="1215068401" type="shop.car" color="237,199,255" layer="4.00" x="554.18" y="687.05"/>
    <poi id="1215068442" type="shop.car_repair" color="237,199,255" layer="4.00" x="552.98" y="529.62"/>
    <poi id="1215068469" type="shop.hairdresser" color="237,199,255" layer="4.00" x="547.66" y="506.85"/>
    <poi id="1215068588" type="shop.boutique" color="237,199,255" layer="4.00" x="552.87" y="732.59"/>
    <poi id="1220014884" type="shop.hairdresser" color="237,199,255" layer="4.00" x="534.92" y="653.32"/>
    <poi id="1220014892" type="shop.car_repair" color="237,199,255" layer="4.00" x="522.58" y="720.98"/>
    <poi id="1220014896" type="shop.motorcycle" color="237,199,255" layer="4.00" x="515.05" y="772.67"/>
    <poi id="1220014904" type="shop.hardware" color="237,199,255" layer="4.00" x="511.91" y="799.36"/>
    <poi id="1220014912" type="amenity.public_building" color="237,199,199" layer="4.00" x="528.62" y="684.26"/>
    <poi id="1220014924" type="shop.furniture" color="237,199,255" layer="4.00" x="511.74" y="802.20"/>
    <poi id="1220014927" type="shop.car_repair" color="237,199,255" layer="4.00" x="532.59" y="564.98"/>
    <poi id="1220014932" type="amenity.restaurant" color="237,199,199" layer="4.00" x="535.89" y="602.92"/>
    <poi id="1220014940" type="shop.hardware" color="237,199,255" layer="4.00" x="519.55" y="745.75"/>
    <poi id="1220014944" type="building.yes" color="255,230,230" layer="4.00" x="509.18" y="776.19"/>
    <poi id="1220014951" type="building.yes" color="255,230,230" layer="4.00" x="491.17" y="842.00"/>
    <poi id="1220014955" type="shop.business_center" color="237,199,255" layer="4.00" x="498.63" y="837.61"/>
    <poi id="1220014958" type="shop.clothes" color="237,199,255" layer="4.00" x="537.15" y="638.19"/>
    <poi id="1220014976" type="shop.general" color="237,199,255" layer="4.00" x="514.18" y="776.19"/>
    <poi id="1220014979" type="shop.vulcanizing" color="237,199,255" layer="4.00" x="511.88" y="462.00"/>
    <poi id="1220014983" type="shop.hardware" color="237,199,255" layer="4.00" x="535.40" y="621.98"/>
    <poi id="1220014987" type="shop.general_merchandise" color="237,199,255" layer="4.00" x="499.03" y="833.53"/>
    <poi id="1220014991" type="amenity.pharmacy" color="237,199,199" layer="4.00" x="528.73" y="679.65"/>
    <poi id="1220014996" type="shop.pet_supply" color="237,199,255" layer="4.00" x="514.16" y="779.75"/>
    <poi id="1220014999" type="amenity.recycling" color="237,199,199" layer="4.00" x="509.82" y="451.29"/>
    <poi id="1220015003" type="building.yes" color="255,230,230" layer="4.00" x="507.87" y="801.87"/>
    <poi id="1220015007" type="shop.general_merchandise" color="237,199,255" layer="4.00" x="498.12" y="843.41"/>
    <poi id="1854269908" type="amenity.bureau_de_change" color="237,199,199" layer="4.00" x="501.89" y="792.78"/>
    <poi id="2503161685" type="amenity.bar" color="237,199,199" layer="4.00" x="558.37" y="544.35"/>
    <poi id="5803998016" type="amenity.restaurant" color="237,199,199" layer="4.00" x="555.39" y="771.02"/>
</additional>
