<?xml version="1.0" encoding="UTF-8"?>

<!-- generated on 2022-02-04 15:33:28 by Eclipse SUMO duarouter Version 1.9.1
<configuration xmlns:xsi="http://www.w3.org/2001/XMLSchema-instance" xsi:noNamespaceSchemaLocation="http://sumo.dlr.de/xsd/duarouterConfiguration.xsd">

    <input>
        <net-file value="Roadwork.net.xml"/>
        <route-files value="osm.passenger.trips.xml"/>
    </input>

    <output>
        <output-file value="routes.rou.xml"/>
        <alternatives-output value="routes.rou.alt.xml"/>
    </output>

    <time>
        <begin value="0"/>
        <end value="7000"/>
    </time>

    <report>
        <no-warnings value="true"/>
        <ignore-errors value="true"/>
        <no-step-log value="true"/>
    </report>

</configuration>
-->

<routes xmlns:xsi="http://www.w3.org/2001/XMLSchema-instance" xsi:noNamespaceSchemaLocation="http://sumo.dlr.de/xsd/routes_file.xsd">
    <vType id="veh_passenger" vClass="passenger"/>
    <vehicle id="veh0" type="veh_passenger" depart="0.00" departLane="best" departSpeed="max">
        <route edges="-105504010#6 -105504010#4 -105504010#3"/>
    </vehicle>
    <vehicle id="veh1" type="veh_passenger" depart="28.28" departLane="best" departSpeed="max">
        <route edges="105504010#0 105504010#4 105504010#5"/>
    </vehicle>
    <vehicle id="veh2" type="veh_passenger" depart="56.55" departLane="best" departSpeed="max">
        <route edges="39167800#0 -105504010#4 -105504010#3"/>
    </vehicle>
    <vehicle id="veh3" type="veh_passenger" depart="84.83" departLane="best" departSpeed="max">
        <route edges="-40274873 -105504010#3"/>
    </vehicle>
    <vehicle id="veh5" type="veh_passenger" depart="141.38" departLane="best">
        <route edges="-105504010#4 -105504010#3"/>
    </vehicle>
    <vehicle id="veh6" type="veh_passenger" depart="169.66" departLane="best" departSpeed="max">
        <route edges="105504010#0 105504010#4"/>
    </vehicle>
    <vehicle id="veh7" type="veh_passenger" depart="197.94" departLane="best">
        <route edges="105504010#4 105504010#5 -105504010#6 -105504010#4 -105504010#3"/>
    </vehicle>
    <vehicle id="veh8" type="veh_passenger" depart="226.21" departLane="best">
        <route edges="105504010#4 105504010#5"/>
    </vehicle>
    <vehicle id="veh9" type="veh_passenger" depart="254.49" departLane="best" departSpeed="max">
        <route edges="-105504010#6 -105504010#4 -105504010#3"/>
    </vehicle>
    <vehicle id="veh10" type="veh_passenger" depart="282.77" departLane="best" departSpeed="max">
        <route edges="39167800#0 -105504010#4"/>
    </vehicle>
    <vehicle id="veh11" type="veh_passenger" depart="311.04" departLane="best" departSpeed="max">
        <route edges="-105504010#6 -105504010#4 -105504010#3"/>
    </vehicle>
    <vehicle id="veh12" type="veh_passenger" depart="339.32" departLane="best" departSpeed="max">
        <route edges="39167800#0 105504010#5"/>
    </vehicle>
    <vehicle id="veh13" type="veh_passenger" depart="367.59" departLane="best">
        <route edges="105504010#4 105504010#5"/>
    </vehicle>
    <vehicle id="veh14" type="veh_passenger" depart="395.87" departLane="best" departSpeed="max">
        <route edges="105504010#0 40274873"/>
    </vehicle>
    <vehicle id="veh15" type="veh_passenger" depart="424.15" departLane="best" departSpeed="max">
        <route edges="-40274873 105504010#4"/>
    </vehicle>
    <vehicle id="veh16" type="veh_passenger" depart="452.42" departLane="best" departSpeed="max">
        <route edges="39167800#0 105504010#5"/>
    </vehicle>
    <vehicle id="veh17" type="veh_passenger" depart="480.70" departLane="best" departSpeed="max">
        <route edges="39167800#0 105504010#5"/>
    </vehicle>
    <vehicle id="veh18" type="veh_passenger" depart="508.98" departLane="best" departSpeed="max">
        <route edges="-105504010#6 -105504010#4"/>
    </vehicle>
    <vehicle id="veh19" type="veh_passenger" depart="537.25" departLane="best" departSpeed="max">
        <route edges="-105504010#6 -105504010#4 -105504010#3"/>
    </vehicle>
    <vehicle id="veh20" type="veh_passenger" depart="565.53" departLane="best" departSpeed="max">
        <route edges="-105504010#6 -105504010#4 -105504010#3"/>
    </vehicle>
    <vehicle id="veh21" type="veh_passenger" depart="593.81" departLane="best" departSpeed="max">
        <route edges="105504010#0 105504010#4 -39167800#1"/>
    </vehicle>
    <vehicle id="veh22" type="veh_passenger" depart="622.08" departLane="best" departSpeed="max">
        <route edges="-40274873 -105504010#3"/>
    </vehicle>
    <vehicle id="veh23" type="veh_passenger" depart="650.36" departLane="best" departSpeed="max">
        <route edges="-105504010#6 -105504010#4 40274873"/>
    </vehicle>
    <vehicle id="veh24" type="veh_passenger" depart="678.64" departLane="best" departSpeed="max">
        <route edges="105504010#0 105504010#4 105504010#5"/>
    </vehicle>
    <vehicle id="veh25" type="veh_passenger" depart="706.91" departLane="best" departSpeed="max">
        <route edges="-105504010#6 -39167800#1"/>
    </vehicle>
    <vehicle id="veh27" type="veh_passenger" depart="763.47" departLane="best" departSpeed="max">
        <route edges="105504010#0 105504010#4 105504010#5"/>
    </vehicle>
    <vehicle id="veh28" type="veh_passenger" depart="791.74" departLane="best" departSpeed="max">
        <route edges="39167800#0 105504010#5"/>
    </vehicle>
    <vehicle id="veh29" type="veh_passenger" depart="820.02" departLane="best" departSpeed="max">
        <route edges="-105504010#6 -105504010#4 -105504010#3"/>
    </vehicle>
    <vehicle id="veh30" type="veh_passenger" depart="848.30" departLane="best" departSpeed="max">
        <route edges="-105504010#6 -105504010#4 -105504010#3"/>
    </vehicle>
    <vehicle id="veh31" type="veh_passenger" depart="876.57" departLane="best" departSpeed="max">
        <route edges="-105504010#6 -105504010#4 40274873"/>
    </vehicle>
    <vehicle id="veh32" type="veh_passenger" depart="904.85" departLane="best" departSpeed="max">
        <route edges="39167800#0 -105504010#4"/>
    </vehicle>
    <vehicle id="veh33" type="veh_passenger" depart="933.13" departLane="best" departSpeed="max">
        <route edges="105504010#0 105504010#4 -39167800#1"/>
    </vehicle>
    <vehicle id="veh34" type="veh_passenger" depart="961.40" departLane="best" departSpeed="max">
        <route edges="-105504010#6 -105504010#4 -105504010#3"/>
    </vehicle>
    <vehicle id="veh35" type="veh_passenger" depart="989.68" departLane="best" departSpeed="max">
        <route edges="105504010#0 40274873"/>
    </vehicle>
    <vehicle id="veh36" type="veh_passenger" depart="1017.95" departLane="best" departSpeed="max">
        <route edges="-40274873 -105504010#3"/>
    </vehicle>
    <vehicle id="veh37" type="veh_passenger" depart="1046.23" departLane="best" departSpeed="max">
        <route edges="-105504010#6 -105504010#4 -105504010#3"/>
    </vehicle>
    <vehicle id="veh38" type="veh_passenger" depart="1074.51" departLane="best">
        <route edges="105504010#4 -39167800#1"/>
    </vehicle>
    <vehicle id="veh39" type="veh_passenger" depart="1102.78" departLane="best" departSpeed="max">
        <route edges="-105504010#6 -39167800#1"/>
    </vehicle>
    <vehicle id="veh40" type="veh_passenger" depart="1131.06" departLane="best" departSpeed="max">
        <route edges="39167800#0 -105504010#4 40274873"/>
    </vehicle>
    <vehicle id="veh41" type="veh_passenger" depart="1159.34" departLane="best">
        <route edges="-105504010#4 -105504010#3 105504010#0 105504010#4 105504010#5"/>
    </vehicle>
    <vehicle id="veh42" type="veh_passenger" depart="1187.61" departLane="best" departSpeed="max">
        <route edges="105504010#0 105504010#4"/>
    </vehicle>
    <vehicle id="veh43" type="veh_passenger" depart="1215.89" departLane="best" departSpeed="max">
        <route edges="-105504010#6 -39167800#1"/>
    </vehicle>
    <vehicle id="veh44" type="veh_passenger" depart="1244.17" departLane="best" departSpeed="max">
        <route edges="39167800#0 -105504010#4 -105504010#3"/>
    </vehicle>
    <vehicle id="veh45" type="veh_passenger" depart="1272.44" departLane="best" departSpeed="max">
        <route edges="39167800#0 -105504010#4 40274873"/>
    </vehicle>
    <vehicle id="veh46" type="veh_passenger" depart="1300.72" departLane="best" departSpeed="max">
        <route edges="105504010#0 105504010#4"/>
    </vehicle>
    <vehicle id="veh47" type="veh_passenger" depart="1329.00" departLane="best">
        <route edges="-105504010#4 40274873"/>
    </vehicle>
    <vehicle id="veh48" type="veh_passenger" depart="1357.27" departLane="best" departSpeed="max">
        <route edges="39167800#0 105504010#5"/>
    </vehicle>
    <vehicle id="veh49" type="veh_passenger" depart="1385.55" departLane="best" departSpeed="max">
        <route edges="-105504010#6 -105504010#4 -105504010#3"/>
    </vehicle>
    <vehicle id="veh50" type="veh_passenger" depart="1413.83" departLane="best" departSpeed="max">
        <route edges="39167800#0 -105504010#4 40274873"/>
    </vehicle>
    <vehicle id="veh52" type="veh_passenger" depart="1470.38" departLane="best" departSpeed="max">
        <route edges="-40274873 105504010#4"/>
    </vehicle>
    <vehicle id="veh53" type="veh_passenger" depart="1498.66" departLane="best" departSpeed="max">
        <route edges="-105504010#6 -105504010#4 40274873"/>
    </vehicle>
    <vehicle id="veh54" type="veh_passenger" depart="1526.93" departLane="best" departSpeed="max">
        <route edges="-40274873 -105504010#3"/>
    </vehicle>
    <vehicle id="veh55" type="veh_passenger" depart="1555.21" departLane="best" departSpeed="max">
        <route edges="105504010#0 105504010#4 105504010#5"/>
    </vehicle>
    <vehicle id="veh56" type="veh_passenger" depart="1583.49" departLane="best" departSpeed="max">
        <route edges="-105504010#6 -105504010#4"/>
    </vehicle>
    <vehicle id="veh58" type="veh_passenger" depart="1640.04" departLane="best" departSpeed="max">
        <route edges="-40274873 105504010#4"/>
    </vehicle>
    <vehicle id="veh59" type="veh_passenger" depart="1668.31" departLane="best" departSpeed="max">
        <route edges="-105504010#6 -105504010#4 -105504010#3"/>
    </vehicle>
    <vehicle id="veh60" type="veh_passenger" depart="1696.59" departLane="best" departSpeed="max">
        <route edges="-105504010#6 -105504010#4 -105504010#3"/>
    </vehicle>
    <vehicle id="veh61" type="veh_passenger" depart="1724.87" departLane="best" departSpeed="max">
        <route edges="-105504010#6 -105504010#4 40274873"/>
    </vehicle>
    <vehicle id="veh62" type="veh_passenger" depart="1753.14" departLane="best" departSpeed="max">
        <route edges="39167800#0 -105504010#4 -105504010#3"/>
    </vehicle>
    <vehicle id="veh63" type="veh_passenger" depart="1781.42" departLane="best" departSpeed="max">
        <route edges="-105504010#6 -105504010#4 -105504010#3"/>
    </vehicle>
    <vehicle id="veh64" type="veh_passenger" depart="1809.70" departLane="best" departSpeed="max">
        <route edges="39167800#0 -105504010#4 -105504010#3 105504010#0 105504010#4"/>
    </vehicle>
    <vehicle id="veh65" type="veh_passenger" depart="1837.97" departLane="best" departSpeed="max">
        <route edges="-40274873 105504010#4 105504010#5"/>
    </vehicle>
    <vehicle id="veh66" type="veh_passenger" depart="1866.25" departLane="best">
        <route edges="105504010#4 105504010#5 -105504010#6 -105504010#4 -105504010#3"/>
    </vehicle>
    <vehicle id="veh67" type="veh_passenger" depart="1894.53" departLane="best" departSpeed="max">
        <route edges="-105504010#6 -39167800#1"/>
    </vehicle>
    <vehicle id="veh68" type="veh_passenger" depart="1922.80" departLane="best" departSpeed="max">
        <route edges="-40274873 105504010#4 -39167800#1"/>
    </vehicle>
    <vehicle id="veh69" type="veh_passenger" depart="1951.08" departLane="best" departSpeed="max">
        <route edges="105504010#0 105504010#4 105504010#5"/>
    </vehicle>
    <vehicle id="veh71" type="veh_passenger" depart="2007.63" departLane="best" departSpeed="max">
        <route edges="-40274873 105504010#4 105504010#5 -105504010#6 -105504010#4"/>
    </vehicle>
    <vehicle id="veh72" type="veh_passenger" depart="2035.91" departLane="best" departSpeed="max">
        <route edges="39167800#0 -105504010#4 -105504010#3"/>
    </vehicle>
    <vehicle id="veh73" type="veh_passenger" depart="2064.19" departLane="best" departSpeed="max">
        <route edges="-105504010#6 -39167800#1"/>
    </vehicle>
    <vehicle id="veh74" type="veh_passenger" depart="2092.46" departLane="best" departSpeed="max">
        <route edges="-40274873 -105504010#3"/>
    </vehicle>
    <vehicle id="veh75" type="veh_passenger" depart="2120.74" departLane="best" departSpeed="max">
        <route edges="-105504010#6 -105504010#4 40274873"/>
    </vehicle>
    <vehicle id="veh77" type="veh_passenger" depart="2177.29" departLane="best" departSpeed="max">
        <route edges="39167800#0 -105504010#4 40274873"/>
    </vehicle>
    <vehicle id="veh78" type="veh_passenger" depart="2205.57" departLane="best" departSpeed="max">
        <route edges="39167800#0 -105504010#4 -105504010#3"/>
    </vehicle>
    <vehicle id="veh79" type="veh_passenger" depart="2233.84" departLane="best" departSpeed="max">
        <route edges="-40274873 -105504010#3"/>
    </vehicle>
    <vehicle id="veh80" type="veh_passenger" depart="2262.12" departLane="best" departSpeed="max">
        <route edges="-40274873 -105504010#3"/>
    </vehicle>
    <vehicle id="veh81" type="veh_passenger" depart="2290.40" departLane="best" departSpeed="max">
        <route edges="-40274873 105504010#4 -39167800#1"/>
    </vehicle>
    <vehicle id="veh82" type="veh_passenger" depart="2318.67" departLane="best" departSpeed="max">
        <route edges="39167800#0 -105504010#4 40274873"/>
    </vehicle>
    <vehicle id="veh83" type="veh_passenger" depart="2346.95" departLane="best" departSpeed="max">
        <route edges="105504010#0 105504010#4 105504010#5"/>
    </vehicle>
    <vehicle id="veh84" type="veh_passenger" depart="2375.23" departLane="best" departSpeed="max">
        <route edges="-105504010#6 -105504010#4"/>
    </vehicle>
    <vehicle id="veh85" type="veh_passenger" depart="2403.50" departLane="best" departSpeed="max">
        <route edges="39167800#0 105504010#5"/>
    </vehicle>
    <vehicle id="veh86" type="veh_passenger" depart="2431.78" departLane="best" departSpeed="max">
        <route edges="105504010#0 105504010#4 105504010#5"/>
    </vehicle>
    <vehicle id="veh87" type="veh_passenger" depart="2460.06" departLane="best" departSpeed="max">
        <route edges="105504010#0 105504010#4 105504010#5"/>
    </vehicle>
    <vehicle id="veh88" type="veh_passenger" depart="2488.33" departLane="best" departSpeed="max">
        <route edges="-105504010#6 -105504010#4 40274873"/>
    </vehicle>
    <vehicle id="veh89" type="veh_passenger" depart="2516.61" departLane="best" departSpeed="max">
        <route edges="-105504010#6 -105504010#4 -105504010#3"/>
    </vehicle>
    <vehicle id="veh90" type="veh_passenger" depart="2544.89" departLane="best" departSpeed="max">
        <route edges="105504010#0 105504010#4 105504010#5"/>
    </vehicle>
    <vehicle id="veh91" type="veh_passenger" depart="2573.16" departLane="best" departSpeed="max">
        <route edges="-105504010#6 -105504010#4 -105504010#3"/>
    </vehicle>
    <vehicle id="veh92" type="veh_passenger" depart="2601.44" departLane="best" departSpeed="max">
        <route edges="39167800#0 -105504010#4 -105504010#3"/>
    </vehicle>
    <vehicle id="veh93" type="veh_passenger" depart="2629.72" departLane="best" departSpeed="max">
        <route edges="105504010#0 105504010#4 105504010#5"/>
    </vehicle>
    <vehicle id="veh94" type="veh_passenger" depart="2657.99" departLane="best" departSpeed="max">
        <route edges="-40274873 105504010#4 105504010#5"/>
    </vehicle>
    <vehicle id="veh95" type="veh_passenger" depart="2686.27" departLane="best" departSpeed="max">
        <route edges="105504010#0 40274873"/>
    </vehicle>
    <vehicle id="veh96" type="veh_passenger" depart="2714.55" departLane="best" departSpeed="max">
        <route edges="-105504010#6 -39167800#1"/>
    </vehicle>
    <vehicle id="veh97" type="veh_passenger" depart="2742.82" departLane="best" departSpeed="max">
        <route edges="105504010#0 105504010#4 105504010#5 -105504010#6 -105504010#4"/>
    </vehicle>
    <vehicle id="veh98" type="veh_passenger" depart="2771.10" departLane="best" departSpeed="max">
        <route edges="-105504010#6 -39167800#1"/>
    </vehicle>
    <vehicle id="veh99" type="veh_passenger" depart="2799.38" departLane="best">
        <route edges="40274873"/>
    </vehicle>
    <vehicle id="veh100" type="veh_passenger" depart="2827.65" departLane="best" departSpeed="max">
        <route edges="-105504010#6 -105504010#4 -105504010#3"/>
    </vehicle>
    <vehicle id="veh101" type="veh_passenger" depart="2855.93" departLane="best" departSpeed="max">
        <route edges="-105504010#6 -105504010#4 40274873"/>
    </vehicle>
    <vehicle id="veh102" type="veh_passenger" depart="2884.20" departLane="best" departSpeed="max">
        <route edges="39167800#0 -105504010#4 40274873"/>
    </vehicle>
    <vehicle id="veh103" type="veh_passenger" depart="2912.48" departLane="best" departSpeed="max">
        <route edges="-40274873 -105504010#3"/>
    </vehicle>
    <vehicle id="veh104" type="veh_passenger" depart="2940.76" departLane="best" departSpeed="max">
        <route edges="39167800#0 105504010#5"/>
    </vehicle>
    <vehicle id="veh105" type="veh_passenger" depart="2969.03" departLane="best" departSpeed="max">
        <route edges="105504010#0 40274873"/>
    </vehicle>
    <vehicle id="veh106" type="veh_passenger" depart="2997.31" departLane="best" departSpeed="max">
        <route edges="105504010#0 40274873"/>
    </vehicle>
    <vehicle id="veh107" type="veh_passenger" depart="3025.59" departLane="best" departSpeed="max">
        <route edges="-105504010#6 -105504010#4 -105504010#3"/>
    </vehicle>
    <vehicle id="veh108" type="veh_passenger" depart="3053.86" departLane="best" departSpeed="max">
        <route edges="-105504010#6 -105504010#4 -105504010#3 105504010#0 105504010#4"/>
    </vehicle>
    <vehicle id="veh109" type="veh_passenger" depart="3082.14" departLane="best" departSpeed="max">
        <route edges="105504010#0 40274873"/>
    </vehicle>
    <vehicle id="veh110" type="veh_passenger" depart="3110.42" departLane="best" departSpeed="max">
        <route edges="39167800#0 -105504010#4 -105504010#3"/>
    </vehicle>
    <vehicle id="veh111" type="veh_passenger" depart="3138.69" departLane="best" departSpeed="max">
        <route edges="-40274873 -105504010#3"/>
    </vehicle>
    <vehicle id="veh112" type="veh_passenger" depart="3166.97" departLane="best">
        <route edges="-105504010#4 -105504010#3 105504010#0 105504010#4 105504010#5"/>
    </vehicle>
    <vehicle id="veh113" type="veh_passenger" depart="3195.25" departLane="best" departSpeed="max">
        <route edges="105504010#0 105504010#4"/>
    </vehicle>
    <vehicle id="veh114" type="veh_passenger" depart="3223.52" departLane="best" departSpeed="max">
        <route edges="-40274873 -105504010#3"/>
    </vehicle>
    <vehicle id="veh115" type="veh_passenger" depart="3251.80" departLane="best" departSpeed="max">
        <route edges="-105504010#6 -105504010#4 40274873"/>
    </vehicle>
    <vehicle id="veh116" type="veh_passenger" depart="3280.08" departLane="best" departSpeed="max">
        <route edges="39167800#0 -105504010#4 -105504010#3 105504010#0 105504010#4"/>
    </vehicle>
    <vehicle id="veh117" type="veh_passenger" depart="3308.35" departLane="best" departSpeed="max">
        <route edges="39167800#0 105504010#5"/>
    </vehicle>
    <vehicle id="veh118" type="veh_passenger" depart="3336.63" departLane="best" departSpeed="max">
        <route edges="-105504010#6 -105504010#4 -105504010#3"/>
    </vehicle>
    <vehicle id="veh119" type="veh_passenger" depart="3364.91" departLane="best" departSpeed="max">
        <route edges="-105504010#6 -105504010#4 40274873"/>
    </vehicle>
    <vehicle id="veh120" type="veh_passenger" depart="3393.18" departLane="best">
        <route edges="105504010#4 105504010#5 -105504010#6 -105504010#4 40274873"/>
    </vehicle>
    <vehicle id="veh121" type="veh_passenger" depart="3421.46" departLane="best" departSpeed="max">
        <route edges="39167800#0 -105504010#4 -105504010#3"/>
    </vehicle>
    <vehicle id="veh122" type="veh_passenger" depart="3449.74" departLane="best" departSpeed="max">
        <route edges="-105504010#6 -105504010#4 -105504010#3"/>
    </vehicle>
    <vehicle id="veh123" type="veh_passenger" depart="3478.01" departLane="best">
        <route edges="105504010#4 105504010#5 -105504010#6 -105504010#4 40274873"/>
    </vehicle>
    <vehicle id="veh124" type="veh_passenger" depart="3506.29" departLane="best" departSpeed="max">
        <route edges="-40274873 105504010#4 105504010#5"/>
    </vehicle>
    <vehicle id="veh125" type="veh_passenger" depart="3534.56" departLane="best" departSpeed="max">
        <route edges="-105504010#6 -105504010#4 40274873"/>
    </vehicle>
    <vehicle id="veh126" type="veh_passenger" depart="3562.84" departLane="best" departSpeed="max">
        <route edges="39167800#0 -105504010#4 40274873"/>
    </vehicle>
    <vehicle id="veh127" type="veh_passenger" depart="3591.12" departLane="best">
        <route edges="105504010#4 105504010#5 -105504010#6 -105504010#4 40274873"/>
    </vehicle>
    <vehicle id="veh128" type="veh_passenger" depart="3619.39" departLane="best">
        <route edges="-105504010#4 -105504010#3 105504010#0 105504010#4 105504010#5"/>
    </vehicle>
    <vehicle id="veh129" type="veh_passenger" depart="3647.67" departLane="best" departSpeed="max">
        <route edges="-105504010#6 -105504010#4 40274873"/>
    </vehicle>
    <vehicle id="veh130" type="veh_passenger" depart="3675.95" departLane="best">
        <route edges="105504010#4 105504010#5 -105504010#6 -105504010#4 40274873"/>
    </vehicle>
    <vehicle id="veh131" type="veh_passenger" depart="3704.22" departLane="best">
        <route edges="105504010#4 105504010#5 -105504010#6 -105504010#4 -105504010#3"/>
    </vehicle>
    <vehicle id="veh132" type="veh_passenger" depart="3732.50" departLane="best">
        <route edges="105504010#4 105504010#5 -105504010#6 -105504010#4 -105504010#3"/>
    </vehicle>
    <vehicle id="veh133" type="veh_passenger" depart="3760.78" departLane="best" departSpeed="max">
        <route edges="39167800#0 -105504010#4 40274873"/>
    </vehicle>
    <vehicle id="veh134" type="veh_passenger" depart="3789.05" departLane="best" departSpeed="max">
        <route edges="-40274873 105504010#4 105504010#5 -105504010#6 -105504010#4"/>
    </vehicle>
    <vehicle id="veh135" type="veh_passenger" depart="3817.33" departLane="best">
        <route edges="105504010#4 105504010#5 -105504010#6 -105504010#4 -105504010#3"/>
    </vehicle>
    <vehicle id="veh136" type="veh_passenger" depart="3845.61" departLane="best">
        <route edges="-105504010#4 -105504010#3"/>
    </vehicle>
    <vehicle id="veh137" type="veh_passenger" depart="3873.88" departLane="best" departSpeed="max">
        <route edges="-105504010#6 -105504010#4 40274873"/>
    </vehicle>
    <vehicle id="veh138" type="veh_passenger" depart="3902.16" departLane="best" departSpeed="max">
        <route edges="39167800#0 -105504010#4 -105504010#3"/>
    </vehicle>
    <vehicle id="veh139" type="veh_passenger" depart="3930.44" departLane="best" departSpeed="max">
        <route edges="105504010#0 105504010#4 -39167800#1"/>
    </vehicle>
    <vehicle id="veh140" type="veh_passenger" depart="3958.71" departLane="best" departSpeed="max">
        <route edges="39167800#0 -105504010#4 -105504010#3"/>
    </vehicle>
    <vehicle id="veh141" type="veh_passenger" depart="3986.99" departLane="best" departSpeed="max">
        <route edges="39167800#0 -105504010#4 -105504010#3"/>
    </vehicle>
    <vehicle id="veh142" type="veh_passenger" depart="4015.27" departLane="best" departSpeed="max">
        <route edges="39167800#0 -105504010#4 -105504010#3"/>
    </vehicle>
    <vehicle id="veh143" type="veh_passenger" depart="4043.54" departLane="best" departSpeed="max">
        <route edges="-105504010#6 -39167800#1"/>
    </vehicle>
    <vehicle id="veh144" type="veh_passenger" depart="4071.82" departLane="best" departSpeed="max">
        <route edges="105504010#0 105504010#4 105504010#5 -105504010#6 -105504010#4"/>
    </vehicle>
    <vehicle id="veh146" type="veh_passenger" depart="4128.37" departLane="best" departSpeed="max">
        <route edges="-40274873 105504010#4 105504010#5"/>
    </vehicle>
    <vehicle id="veh147" type="veh_passenger" depart="4156.65" departLane="best">
        <route edges="-105504010#4 40274873"/>
    </vehicle>
    <vehicle id="veh148" type="veh_passenger" depart="4184.92" departLane="best" departSpeed="max">
        <route edges="105504010#0 105504010#4 105504010#5"/>
    </vehicle>
    <vehicle id="veh149" type="veh_passenger" depart="4213.20" departLane="best" departSpeed="max">
        <route edges="105504010#0 105504010#4 105504010#5"/>
    </vehicle>
    <vehicle id="veh150" type="veh_passenger" depart="4241.48" departLane="best" departSpeed="max">
        <route edges="-40274873 -105504010#3"/>
    </vehicle>
    <vehicle id="veh151" type="veh_passenger" depart="4269.75" departLane="best" departSpeed="max">
        <route edges="105504010#0 105504010#4 105504010#5 -105504010#6 -105504010#4"/>
    </vehicle>
    <vehicle id="veh152" type="veh_passenger" depart="4298.03" departLane="best" departSpeed="max">
        <route edges="105504010#0 105504010#4 105504010#5 -105504010#6 -105504010#4"/>
    </vehicle>
    <vehicle id="veh153" type="veh_passenger" depart="4326.31" departLane="best" departSpeed="max">
        <route edges="-105504010#6 -39167800#1"/>
    </vehicle>
    <vehicle id="veh154" type="veh_passenger" depart="4354.58" departLane="best" departSpeed="max">
        <route edges="-40274873 105504010#4 105504010#5 -105504010#6 -105504010#4"/>
    </vehicle>
    <vehicle id="veh155" type="veh_passenger" depart="4382.86" departLane="best" departSpeed="max">
        <route edges="-105504010#6 -39167800#1"/>
    </vehicle>
    <vehicle id="veh156" type="veh_passenger" depart="4411.14" departLane="best" departSpeed="max">
        <route edges="39167800#0 105504010#5"/>
    </vehicle>
    <vehicle id="veh157" type="veh_passenger" depart="4439.41" departLane="best" departSpeed="max">
        <route edges="39167800#0 105504010#5"/>
    </vehicle>
    <vehicle id="veh158" type="veh_passenger" depart="4467.69" departLane="best" departSpeed="max">
        <route edges="-105504010#6 -105504010#4 -105504010#3 105504010#0 105504010#4"/>
    </vehicle>
    <vehicle id="veh159" type="veh_passenger" depart="4495.97" departLane="best" departSpeed="max">
        <route edges="-40274873 105504010#4 105504010#5"/>
    </vehicle>
    <vehicle id="veh160" type="veh_passenger" depart="4524.24" departLane="best" departSpeed="max">
        <route edges="105504010#0 105504010#4 -39167800#1"/>
    </vehicle>
    <vehicle id="veh161" type="veh_passenger" depart="4552.52" departLane="best" departSpeed="max">
        <route edges="-40274873 -105504010#3"/>
    </vehicle>
    <vehicle id="veh162" type="veh_passenger" depart="4580.80" departLane="best">
        <route edges="105504010#4 105504010#5 -105504010#6 -105504010#4 -105504010#3"/>
    </vehicle>
    <vehicle id="veh163" type="veh_passenger" depart="4609.07" departLane="best" departSpeed="max">
        <route edges="-105504010#6 -105504010#4 -105504010#3 105504010#0 105504010#4"/>
    </vehicle>
    <vehicle id="veh164" type="veh_passenger" depart="4637.35" departLane="best" departSpeed="max">
        <route edges="105504010#0 105504010#4 105504010#5 -105504010#6 -105504010#4"/>
    </vehicle>
    <vehicle id="veh165" type="veh_passenger" depart="4665.63" departLane="best">
        <route edges="105504010#4 105504010#5"/>
    </vehicle>
    <vehicle id="veh166" type="veh_passenger" depart="4693.90" departLane="best" departSpeed="max">
        <route edges="-105504010#6 -105504010#4 -105504010#3"/>
    </vehicle>
    <vehicle id="veh167" type="veh_passenger" depart="4722.18" departLane="best" departSpeed="max">
        <route edges="-105504010#6 -39167800#1"/>
    </vehicle>
    <vehicle id="veh168" type="veh_passenger" depart="4750.46" departLane="best" departSpeed="max">
        <route edges="39167800#0 -105504010#4 -105504010#3"/>
    </vehicle>
    <vehicle id="veh169" type="veh_passenger" depart="4778.73" departLane="best" departSpeed="max">
        <route edges="-40274873 105504010#4 105504010#5"/>
    </vehicle>
    <vehicle id="veh170" type="veh_passenger" depart="4807.01" departLane="best" departSpeed="max">
        <route edges="105504010#0 105504010#4 105504010#5"/>
    </vehicle>
    <vehicle id="veh171" type="veh_passenger" depart="4835.28" departLane="best" departSpeed="max">
        <route edges="-105504010#6 -39167800#1"/>
    </vehicle>
    <vehicle id="veh172" type="veh_passenger" depart="4863.56" departLane="best" departSpeed="max">
        <route edges="-105504010#6 -105504010#4 40274873"/>
    </vehicle>
    <vehicle id="veh173" type="veh_passenger" depart="4891.84" departLane="best" departSpeed="max">
        <route edges="-40274873 105504010#4 105504010#5"/>
    </vehicle>
    <vehicle id="veh174" type="veh_passenger" depart="4920.11" departLane="best" departSpeed="max">
        <route edges="105504010#0 40274873"/>
    </vehicle>
    <vehicle id="veh175" type="veh_passenger" depart="4948.39" departLane="best" departSpeed="max">