<?xml version="1.0" encoding="UTF-8"?>

<!-- generated on 2022-02-04 15:33:28 by Eclipse SUMO duarouter Version 1.9.1
<configuration xmlns:xsi="http://www.w3.org/2001/XMLSchema-instance" xsi:noNamespaceSchemaLocation="http://sumo.dlr.de/xsd/duarouterConfiguration.xsd">

    <input>
        <net-file value="Roadwork.net.xml"/>
        <route-files value="osm.passenger.trips.xml"/>
    </input>

    <output>
        <output-file value="osm.passenger.trips.xml.tmp"/>
        <write-trips value="true"/>
    </output>

    <time>
        <begin value="0"/>
        <end value="7000"/>
    </time>

    <report>
        <no-warnings value="true"/>
        <ignore-errors value="true"/>
        <no-step-log value="true"/>
    </report>

</configuration>
-->

<routes xmlns:xsi="http://www.w3.org/2001/XMLSchema-instance" xsi:noNamespaceSchemaLocation="http://sumo.dlr.de/xsd/routes_file.xsd">
    <vType id="veh_passenger" length="3" minGap="1" vClass="passenger"/>
    <trip id="veh0" type="veh_passenger" depart="0.00" departLane="best" departSpeed="max" from="-105504010#6" to="-105504010#3"/>
    <trip id="veh1" type="veh_passenger" depart="28.28" departLane="best" departSpeed="max" from="105504010#0" to="105504010#5"/>
    <trip id="veh2" type="veh_passenger" depart="56.55" departLane="best" departSpeed="max" from="39167800#0" to="-105504010#3"/>
    <trip id="veh3" type="veh_passenger" depart="84.83" departLane="best" departSpeed="max" from="-40274873" to="-105504010#3"/>
    <trip id="veh5" type="veh_passenger" depart="141.38" departLane="best" from="-105504010#4" to="-105504010#3"/>
    <trip id="veh6" type="veh_passenger" depart="169.66" departLane="best" departSpeed="max" from="105504010#0" to="105504010#4"/>
    <trip id="veh7" type="veh_passenger" depart="197.94" departLane="best" from="105504010#4" to="-105504010#3"/>
    <trip id="veh8" type="veh_passenger" depart="226.21" departLane="best" from="105504010#4" to="105504010#5"/>
    <trip id="veh9" type="veh_passenger" depart="254.49" departLane="best" departSpeed="max" from="-105504010#6" to="-105504010#3"/>
    <trip id="veh10" type="veh_passenger" depart="282.77" departLane="best" departSpeed="max" from="39167800#0" to="-105504010#4"/>
    <trip id="veh11" type="veh_passenger" depart="311.04" departLane="best" departSpeed="max" from="-105504010#6" to="-105504010#3"/>
    <trip id="veh12" type="veh_passenger" depart="339.32" departLane="best" departSpeed="max" from="39167800#0" to="105504010#5"/>
    <trip id="veh13" type="veh_passenger" depart="367.59" departLane="best" from="105504010#4" to="105504010#5"/>
    <trip id="veh14" type="veh_passenger" depart="395.87" departLane="best" departSpeed="max" from="105504010#0" to="40274873"/>
    <trip id="veh15" type="veh_passenger" depart="424.15" departLane="best" departSpeed="max" from="-40274873" to="105504010#4"/>
    <trip id="veh16" type="veh_passenger" depart="452.42" departLane="best" departSpeed="max" from="39167800#0" to="105504010#5"/>
    <trip id="veh17" type="veh_passenger" depart="480.70" departLane="best" departSpeed="max" from="39167800#0" to="105504010#5"/>
    <trip id="veh18" type="veh_passenger" depart="508.98" departLane="best" departSpeed="max" from="-105504010#6" to="-105504010#4"/>
    <trip id="veh19" type="veh_passenger" depart="537.25" departLane="best" departSpeed="max" from="-105504010#6" to="-105504010#3"/>
    <trip id="veh20" type="veh_passenger" depart="565.53" departLane="best" departSpeed="max" from="-105504010#6" to="-105504010#3"/>
    <trip id="veh21" type="veh_passenger" depart="593.81" departLane="best" departSpeed="max" from="105504010#0" to="-39167800#1"/>
    <trip id="veh22" type="veh_passenger" depart="622.08" departLane="best" departSpeed="max" from="-40274873" to="-105504010#3"/>
    <trip id="veh23" type="veh_passenger" depart="650.36" departLane="best" departSpeed="max" from="-105504010#6" to="40274873"/>
    <trip id="veh24" type="veh_passenger" depart="678.64" departLane="best" departSpeed="max" from="105504010#0" to="105504010#5"/>
    <trip id="veh25" type="veh_passenger" depart="706.91" departLane="best" departSpeed="max" from="-105504010#6" to="-39167800#1"/>
    <trip id="veh27" type="veh_passenger" depart="763.47" departLane="best" departSpeed="max" from="105504010#0" to="105504010#5"/>
    <trip id="veh28" type="veh_passenger" depart="791.74" departLane="best" departSpeed="max" from="39167800#0" to="105504010#5"/>
    <trip id="veh29" type="veh_passenger" depart="820.02" departLane="best" departSpeed="max" from="-105504010#6" to="-105504010#3"/>
    <trip id="veh30" type="veh_passenger" depart="848.30" departLane="best" departSpeed="max" from="-105504010#6" to="-105504010#3"/>
    <trip id="veh31" type="veh_passenger" depart="876.57" departLane="best" departSpeed="max" from="-105504010#6" to="40274873"/>
    <trip id="veh32" type="veh_passenger" depart="904.85" departLane="best" departSpeed="max" from="39167800#0" to="-105504010#4"/>
    <trip id="veh33" type="veh_passenger" depart="933.13" departLane="best" departSpeed="max" from="105504010#0" to="-39167800#1"/>
    <trip id="veh34" type="veh_passenger" depart="961.40" departLane="best" departSpeed="max" from="-105504010#6" to="-105504010#3"/>
    <trip id="veh35" type="veh_passenger" depart="989.68" departLane="best" departSpeed="max" from="105504010#0" to="40274873"/>
    <trip id="veh36" type="veh_passenger" depart="1017.95" departLane="best" departSpeed="max" from="-40274873" to="-105504010#3"/>
    <trip id="veh37" type="veh_passenger" depart="1046.23" departLane="best" departSpeed="max" from="-105504010#6" to="-105504010#3"/>
    <trip id="veh38" type="veh_passenger" depart="1074.51" departLane="best" from="105504010#4" to="-39167800#1"/>
    <trip id="veh39" type="veh_passenger" depart="1102.78" departLane="best" departSpeed="max" from="-105504010#6" to="-39167800#1"/>
    <trip id="veh40" type="veh_passenger" depart="1131.06" departLane="best" departSpeed="max" from="39167800#0" to="40274873"/>
    <trip id="veh41" type="veh_passenger" depart="1159.34" departLane="best" from="-105504010#4" to="105504010#5"/>
    <trip id="veh42" type="veh_passenger" depart="1187.61" departLane="best" departSpeed="max" from="105504010#0" to="105504010#4"/>
    <trip id="veh43" type="veh_passenger" depart="1215.89" departLane="best" departSpeed="max" from="-105504010#6" to="-39167800#1"/>
    <trip id="veh44" type="veh_passenger" depart="1244.17" departLane="best" departSpeed="max" from="39167800#0" to="-105504010#3"/>
    <trip id="veh45" type="veh_passenger" depart="1272.44" departLane="best" departSpeed="max" from="39167800#0" to="40274873"/>
    <trip id="veh46" type="veh_passenger" depart="1300.72" departLane="best" departSpeed="max" from="105504010#0" to="105504010#4"/>
    <trip id="veh47" type="veh_passenger" depart="1329.00" departLane="best" from="-105504010#4" to="40274873"/>
    <trip id="veh48" type="veh_passenger" depart="1357.27" departLane="best" departSpeed="max" from="39167800#0" to="105504010#5"/>
    <trip id="veh49" type="veh_passenger" depart="1385.55" departLane="best" departSpeed="max" from="-105504010#6" to="-105504010#3"/>
    <trip id="veh50" type="veh_passenger" depart="1413.83" departLane="best" departSpeed="max" from="39167800#0" to="40274873"/>
    <trip id="veh52" type="veh_passenger" depart="1470.38" departLane="best" departSpeed="max" from="-40274873" to="105504010#4"/>
    <trip id="veh53" type="veh_passenger" depart="1498.66" departLane="best" departSpeed="max" from="-105504010#6" to="40274873"/>
    <trip id="veh54" type="veh_passenger" depart="1526.93" departLane="best" departSpeed="max" from="-40274873" to="-105504010#3"/>
    <trip id="veh55" type="veh_passenger" depart="1555.21" departLane="best" departSpeed="max" from="105504010#0" to="105504010#5"/>
    <trip id="veh56" type="veh_passenger" depart="1583.49" departLane="best" departSpeed="max" from="-105504010#6" to="-105504010#4"/>
    <trip id="veh58" type="veh_passenger" depart="1640.04" departLane="best" departSpeed="max" from="-40274873" to="105504010#4"/>
    <trip id="veh59" type="veh_passenger" depart="1668.31" departLane="best" departSpeed="max" from="-105504010#6" to="-105504010#3"/>
    <trip id="veh60" type="veh_passenger" depart="1696.59" departLane="best" departSpeed="max" from="-105504010#6" to="-105504010#3"/>
    <trip id="veh61" type="veh_passenger" depart="1724.87" departLane="best" departSpeed="max" from="-105504010#6" to="40274873"/>
    <trip id="veh62" type="veh_passenger" depart="1753.14" departLane="best" departSpeed="max" from="39167800#0" to="-105504010#3"/>
    <trip id="veh63" type="veh_passenger" depart="1781.42" departLane="best" departSpeed="max" from="-105504010#6" to="-105504010#3"/>
    <trip id="veh64" type="veh_passenger" depart="1809.70" departLane="best" departSpeed="max" from="39167800#0" to="105504010#4"/>
    <trip id="veh65" type="veh_passenger" depart="1837.97" departLane="best" departSpeed="max" from="-40274873" to="105504010#5"/>
    <trip id="veh66" type="veh_passenger" depart="1866.25" departLane="best" from="105504010#4" to="-105504010#3"/>
    <trip id="veh67" type="veh_passenger" depart="1894.53" departLane="best" departSpeed="max" from="-105504010#6" to="-39167800#1"/>
    <trip id="veh68" type="veh_passenger" depart="1922.80" departLane="best" departSpeed="max" from="-40274873" to="-39167800#1"/>
    <trip id="veh69" type="veh_passenger" depart="1951.08" departLane="best" departSpeed="max" from="105504010#0" to="105504010#5"/>
    <trip id="veh71" type="veh_passenger" depart="2007.63" departLane="best" departSpeed="max" from="-40274873" to="-105504010#4"/>
    <trip id="veh72" type="veh_passenger" depart="2035.91" departLane="best" departSpeed="max" from="39167800#0" to="-105504010#3"/>
    <trip id="veh73" type="veh_passenger" depart="2064.19" departLane="best" departSpeed="max" from="-105504010#6" to="-39167800#1"/>
    <trip id="veh74" type="veh_passenger" depart="2092.46" departLane="best" departSpeed="max" from="-40274873" to="-105504010#3"/>
    <trip id="veh75" type="veh_passenger" depart="2120.74" departLane="best" departSpeed="max" from="-105504010#6" to="40274873"/>
    <trip id="veh77" type="veh_passenger" depart="2177.29" departLane="best" departSpeed="max" from="39167800#0" to="40274873"/>
    <trip id="veh78" type="veh_passenger" depart="2205.57" departLane="best" departSpeed="max" from="39167800#0" to="-105504010#3"/>
    <trip id="veh79" type="veh_passenger" depart="2233.84" departLane="best" departSpeed="max" from="-40274873" to="-105504010#3"/>
    <trip id="veh80" type="veh_passenger" depart="2262.12" departLane="best" departSpeed="max" from="-40274873" to="-105504010#3"/>
    <trip id="veh81" type="veh_passenger" depart="2290.40" departLane="best" departSpeed="max" from="-40274873" to="-39167800#1"/>
    <trip id="veh82" type="veh_passenger" depart="2318.67" departLane="best" departSpeed="max" from="39167800#0" to="40274873"/>
    <trip id="veh83" type="veh_passenger" depart="2346.95" departLane="best" departSpeed="max" from="105504010#0" to="105504010#5"/>
    <trip id="veh84" type="veh_passenger" depart="2375.23" departLane="best" departSpeed="max" from="-105504010#6" to="-105504010#4"/>
    <trip id="veh85" type="veh_passenger" depart="2403.50" departLane="best" departSpeed="max" from="39167800#0" to="105504010#5"/>
    <trip id="veh86" type="veh_passenger" depart="2431.78" departLane="best" departSpeed="max" from="105504010#0" to="105504010#5"/>
    <trip id="veh87" type="veh_passenger" depart="2460.06" departLane="best" departSpeed="max" from="105504010#0" to="105504010#5"/>
    <trip id="veh88" type="veh_passenger" depart="2488.33" departLane="best" departSpeed="max" from="-105504010#6" to="40274873"/>
    <trip id="veh89" type="veh_passenger" depart="2516.61" departLane="best" departSpeed="max" from="-105504010#6" to="-105504010#3"/>
    <trip id="veh90" type="veh_passenger" depart="2544.89" departLane="best" departSpeed="max" from="105504010#0" to="105504010#5"/>
    <trip id="veh91" type="veh_passenger" depart="2573.16" departLane="best" departSpeed="max" from="-105504010#6" to="-105504010#3"/>
    <trip id="veh92" type="veh_passenger" depart="2601.44" departLane="best" departSpeed="max" from="39167800#0" to="-105504010#3"/>
    <trip id="veh93" type="veh_passenger" depart="2629.72" departLane="best" departSpeed="max" from="105504010#0" to="105504010#5"/>
    <trip id="veh94" type="veh_passenger" depart="2657.99" departLane="best" departSpeed="max" from="-40274873" to="105504010#5"/>
    <trip id="veh95" type="veh_passenger" depart="2686.27" departLane="best" departSpeed="max" from="105504010#0" to="40274873"/>
    <trip id="veh96" type="veh_passenger" depart="2714.55" departLane="best" departSpeed="max" from="-105504010#6" to="-39167800#1"/>
    <trip id="veh97" type="veh_passenger" depart="2742.82" departLane="best" departSpeed="max" from="105504010#0" to="-105504010#4"/>
    <trip id="veh98" type="veh_passenger" depart="2771.10" departLane="best" departSpeed="max" from="-105504010#6" to="-39167800#1"/>
    <trip id="veh99" type="veh_passenger" depart="2799.38" departLane="best" from="40274873" to="40274873"/>
    <trip id="veh100" type="veh_passenger" depart="2827.65" departLane="best" departSpeed="max" from="-105504010#6" to="-105504010#3"/>
    <trip id="veh101" type="veh_passenger" depart="2855.93" departLane="best" departSpeed="max" from="-105504010#6" to="40274873"/>
    <trip id="veh102" type="veh_passenger" depart="2884.20" departLane="best" departSpeed="max" from="39167800#0" to="40274873"/>
    <trip id="veh103" type="veh_passenger" depart="2912.48" departLane="best" departSpeed="max" from="-40274873" to="-105504010#3"/>
    <trip id="veh104" type="veh_passenger" depart="2940.76" departLane="best" departSpeed="max" from="39167800#0" to="105504010#5"/>
    <trip id="veh105" type="veh_passenger" depart="2969.03" departLane="best" departSpeed="max" from="105504010#0" to="40274873"/>
    <trip id="veh106" type="veh_passenger" depart="2997.31" departLane="best" departSpeed="max" from="105504010#0" to="40274873"/>
    <trip id="veh107" type="veh_passenger" depart="3025.59" departLane="best" departSpeed="max" from="-105504010#6" to="-105504010#3"/>
    <trip id="veh108" type="veh_passenger" depart="3053.86" departLane="best" departSpeed="max" from="-105504010#6" to="105504010#4"/>
    <trip id="veh109" type="veh_passenger" depart="3082.14" departLane="best" departSpeed="max" from="105504010#0" to="40274873"/>
    <trip id="veh110" type="veh_passenger" depart="3110.42" departLane="best" departSpeed="max" from="39167800#0" to="-105504010#3"/>
    <trip id="veh111" type="veh_passenger" depart="3138.69" departLane="best" departSpeed="max" from="-40274873" to="-105504010#3"/>
    <trip id="veh112" type="veh_passenger" depart="3166.97" departLane="best" from="-105504010#4" to="105504010#5"/>
    <trip id="veh113" type="veh_passenger" depart="3195.25" departLane="best" departSpeed="max" from="105504010#0" to="105504010#4"/>
    <trip id="veh114" type="veh_passenger" depart="3223.52" departLane="best" departSpeed="max" from="-40274873" to="-105504010#3"/>
    <trip id="veh115" type="veh_passenger" depart="3251.80" departLane="best" departSpeed="max" from="-105504010#6" to="40274873"/>
    <trip id="veh116" type="veh_passenger" depart="3280.08" departLane="best" departSpeed="max" from="39167800#0" to="105504010#4"/>
    <trip id="veh117" type="veh_passenger" depart="3308.35" departLane="best" departSpeed="max" from="39167800#0" to="105504010#5"/>
    <trip id="veh118" type="veh_passenger" depart="3336.63" departLane="best" departSpeed="max" from="-105504010#6" to="-105504010#3"/>
    <trip id="veh119" type="veh_passenger" depart="3364.91" departLane="best" departSpeed="max" from="-105504010#6" to="40274873"/>
    <trip id="veh120" type="veh_passenger" depart="3393.18" departLane="best" from="105504010#4" to="40274873"/>
    <trip id="veh121" type="veh_passenger" depart="3421.46" departLane="best" departSpeed="max" from="39167800#0" to="-105504010#3"/>
    <trip id="veh122" type="veh_passenger" depart="3449.74" departLane="best" departSpeed="max" from="-105504010#6" to="-105504010#3"/>
    <trip id="veh123" type="veh_passenger" depart="3478.01" departLane="best" from="105504010#4" to="40274873"/>
    <trip id="veh124" type="veh_passenger" depart="3506.29" departLane="best" departSpeed="max" from="-40274873" to="105504010#5"/>
    <trip id="veh125" type="veh_passenger" depart="3534.56" departLane="best" departSpeed="max" from="-105504010#6" to="40274873"/>
    <trip id="veh126" type="veh_passenger" depart="3562.84" departLane="best" departSpeed="max" from="39167800#0" to="40274873"/>
    <trip id="veh127" type="veh_passenger" depart="3591.12" departLane="best" from="105504010#4" to="40274873"/>
    <trip id="veh128" type="veh_passenger" depart="3619.39" departLane="best" from="-105504010#4" to="105504010#5"/>
    <trip id="veh129" type="veh_passenger" depart="3647.67" departLane="best" departSpeed="max" from="-105504010#6" to="40274873"/>
    <trip id="veh130" type="veh_passenger" depart="3675.95" departLane="best" from="105504010#4" to="40274873"/>
    <trip id="veh131" type="veh_passenger" depart="3704.22" departLane="best" from="105504010#4" to="-105504010#3"/>
    <trip id="veh132" type="veh_passenger" depart="3732.50" departLane="best" from="105504010#4" to="-105504010#3"/>
    <trip id="veh133" type="veh_passenger" depart="3760.78" departLane="best" departSpeed="max" from="39167800#0" to="40274873"/>
    <trip id="veh134" type="veh_passenger" depart="3789.05" departLane="best" departSpeed="max" from="-40274873" to="-105504010#4"/>
    <trip id="veh135" type="veh_passenger" depart="3817.33" departLane="best" from="105504010#4" to="-105504010#3"/>
    <trip id="veh136" type="veh_passenger" depart="3845.61" departLane="best" from="-105504010#4" to="-105504010#3"/>
    <trip id="veh137" type="veh_passenger" depart="3873.88" departLane="best" departSpeed="max" from="-105504010#6" to="40274873"/>
    <trip id="veh138" type="veh_passenger" depart="3902.16" departLane="best" departSpeed="max" from="39167800#0" to="-105504010#3"/>
    <trip id="veh139" type="veh_passenger" depart="3930.44" departLane="best" departSpeed="max" from="105504010#0" to="-39167800#1"/>
    <trip id="veh140" type="veh_passenger" depart="3958.71" departLane="best" departSpeed="max" from="39167800#0" to="-105504010#3"/>
    <trip id="veh141" type="veh_passenger" depart="3986.99" departLane="best" departSpeed="max" from="39167800#0" to="-105504010#3"/>
    <trip id="veh142" type="veh_passenger" depart="4015.27" departLane="best" departSpeed="max" from="39167800#0" to="-105504010#3"/>
    <trip id="veh143" type="veh_passenger" depart="4043.54" departLane="best" departSpeed="max" from="-105504010#6" to="-39167800#1"/>
    <trip id="veh144" type="veh_passenger" depart="4071.82" departLane="best" departSpeed="max" from="105504010#0" to="-105504010#4"/>
    <trip id="veh146" type="veh_passenger" depart="4128.37" departLane="best" departSpeed="max" from="-40274873" to="105504010#5"/>
    <trip id="veh147" type="veh_passenger" depart="4156.65" departLane="best" from="-105504010#4" to="40274873"/>
    <trip id="veh148" type="veh_passenger" depart="4184.92" departLane="best" departSpeed="max" from="105504010#0" to="105504010#5"/>
    <trip id="veh149" type="veh_passenger" depart="4213.20" departLane="best" departSpeed="max" from="105504010#0" to="105504010#5"/>
    <trip id="veh150" type="veh_passenger" depart="4241.48" departLane="best" departSpeed="max" from="-40274873" to="-105504010#3"/>
    <trip id="veh151" type="veh_passenger" depart="4269.75" departLane="best" departSpeed="max" from="105504010#0" to="-105504010#4"/>
    <trip id="veh152" type="veh_passenger" depart="4298.03" departLane="best" departSpeed="max" from="105504010#0" to="-105504010#4"/>
    <trip id="veh153" type="veh_passenger" depart="4326.31" departLane="best" departSpeed="max" from="-105504010#6" to="-39167800#1"/>
    <trip id="veh154" type="veh_passenger" depart="4354.58" departLane="best" departSpeed="max" from="-40274873" to="-105504010#4"/>
    <trip id="veh155" type="veh_passenger" depart="4382.86" departLane="best" departSpeed="max" from="-105504010#6" to="-39167800#1"/>
    <trip id="veh156" type="veh_passenger" depart="4411.14" departLane="best" departSpeed="max" from="39167800#0" to="105504010#5"/>
    <trip id="veh157" type="veh_passenger" depart="4439.41" departLane="best" departSpeed="max" from="39167800#0" to="105504010#5"/>
    <trip id="veh158" type="veh_passenger" depart="4467.69" departLane="best" departSpeed="max" from="-105504010#6" to="105504010#4"/>
    <trip id="veh159" type="veh_passenger" depart="4495.97" departLane="best" departSpeed="max" from="-40274873" to="105504010#5"/>
    <trip id="veh160" type="veh_passenger" depart="4524.24" departLane="best" departSpeed="max" from="105504010#0" to="-39167800#1"/>
    <trip id="veh161" type="veh_passenger" depart="4552.52" departLane="best" departSpeed="max" from="-40274873" to="-105504010#3"/>
    <trip id="veh162" type="veh_passenger" depart="4580.80" departLane="best" from="105504010#4" to="-105504010#3"/>
    <trip id="veh163" type="veh_passenger" depart="4609.07" departLane="best" departSpeed="max" from="-105504010#6" to="105504010#4"/>
    <trip id="veh164" type="veh_passenger" depart="4637.35" departLane="best" departSpeed="max" from="105504010#0" to="-105504010#4"/>
    <trip id="veh165" type="veh_passenger" depart="4665.63" departLane="best" from="105504010#4" to="105504010#5"/>
    <trip id="veh166" type="veh_passenger" depart="4693.90" departLane="best" departSpeed="max" from="-105504010#6" to="-105504010#3"/>
    <trip id="veh167" type="veh_passenger" depart="4722.18" departLane="best" departSpeed="max" from="-105504010#6" to="-39167800#1"/>
    <trip id="veh168" type="veh_passenger" depart="4750.46" departLane="best" departSpeed="max" from="39167800#0" to="-105504010#3"/>
    <trip id="veh169" type="veh_passenger" depart="4778.73" departLane="best" departSpeed="max" from="-40274873" to="105504010#5"/>
    <trip id="veh170" type="veh_passenger" depart="4807.01" departLane="best" departSpeed="max" from="105504010#0" to="105504010#5"/>
    <trip id="veh171" type="veh_passenger" depart="4835.28" departLane="best" departSpeed="max" from="-105504010#6" to="-39167800#1"/>
    <trip id="veh172" type="veh_passenger" depart="4863.56" departLane="best" departSpeed="max" from="-105504010#6" to="40274873"/>
    <trip id="veh173" type="veh_passenger" depart="4891.84" departLane="best" departSpeed="max" from="-40274873" to="105504010#5"/>
    <trip id="veh174" type="veh_passenger" depart="4920.11" departLane="best" departSpeed="max" from="105504010#0" to="40274873"/>
    <trip id="veh175" type="veh_passenger" depart="4948.39" departLane="best" departSpeed="max" from="105504010#0" to="40274873"/>
    <trip id="veh176" type="veh_passenger" depart="4976.67" departLane="best" departSpeed="max" from="39167800#0" to="105504010#5"/>
    <trip id="veh178" type="veh_passenger" depart="5033.22" departLane="best" departSpeed="max" from="39167800#0" to="105504010#4"/>
    <trip id="veh179" type="veh_passenger" depart="5061.50" departLane="best" departSpeed="max" from="39167800#0" to="105504010#5"/>
    <trip id="veh180" type="veh_passenger" depart="5089.77" departLane="best" departSpeed="max" from="-40274873" to="-105504010#3"/>
    <trip id="veh181" type="veh_passenger" depart="5118.05" departLane="best" departSpeed="max" from="105504010#0" to="105504010#4"/>
    <trip id="veh182" type="veh_passenger" depart="5146.33" departLane="best" departSpeed="max" from="-105504010#6" to="-105504010#4"/>
    <trip id="veh183" type="veh_passenger" depart="5174.60" departLane="best" departSpeed="max" from="-105504010#6" to="-105504010#4"/>
    <trip id="veh184" type="veh_passenger" depart="5202.88" departLane="best" departSpeed="max" from="-40274873" to="105504010#4"/>
    <trip id="veh185" type="veh_passenger" depart="5231.16" departLane="best" departSpeed="max" from="-40274873" to="-105504010#3"/>
    <trip id="veh186" type="veh_passenger" depart="5259.43" departLane="best" departSpeed="max" from="105504010#0" to="105504010#5"/>
    <trip id="veh187" type="veh_passenger" depart="5287.71" departLane="best" departSpeed="max" from="39167800#0" to="105504010#5"/>
    <trip id="veh188" type="veh_passenger" depart="5315.99" departLane="best" departSpeed="max" from="-40274873" to="-105504010#3"/>
    <trip id="veh189" type="veh_passenger" depart="5344.26" departLane="best" departSpeed="max" from="-40274873" to="105504010#5"/>
    <trip id="veh190" type="veh_passenger" depart="5372.54" departLane="best" departSpeed="max" from="39167800#0" to="40274873"/>
    <trip id="veh191" type="veh_passenger" depart="5400.81" departLane="best" departSpeed="max" from="-40274873" to="105504010#5"/>
    <trip id="veh192" type="veh_passenger" depart="5429.09" departLane="best" departSpeed="max" from="105504010#0" to="105504010#5"/>
    <trip id="veh193" type="veh_passenger" depart="5457.37" departLane="best" departSpeed="max" from="-105504010#6" to="-105504010#3"/>
    <trip id="veh194" type="veh_passenger" depart="5485.64" departLane="best" departSpeed="max" from="-40274873" to="-105504010#3"/>
    <trip id="veh195" type="veh_passenger" depart="5513.92" departLane="best" departSpeed="max" from="-40274873" to="-105504010#3"/>
    <trip id="veh196" type="veh_passenger" depart="5542.20" departLane="best" departSpeed="max" from="-40274873" to="-105504010#3"/>
    <trip id="veh197" type="veh_passenger" depart="5570.47" departLane="best" departSpeed="max" from="-40274873" to="105504010#4"/>
    <trip id="veh198" type="veh_passenger" depart="5598.75" departLane="best" from="-105504010#4" to="105504010#5"/>
    <trip id="veh199" type="veh_passenger" depart="5627.03" departLane="best" departSpeed="max" from="-105504010#6" to="-39167800#1"/>
    <trip id="veh200" type="veh_passenger" depart="5655.30" departLane="best" from="-105504010#4" to="-39167800#1"/>
    <trip id="veh201" type="veh_passenger" depart="5683.58" departLane="best" departSpeed="max" from="-105504010#6" to="-105504010#4"/>
    <trip id="veh202" type="veh_passenger" depart="5711.86" departLane="best" departSpeed="max" from="105504010#0" to="-39167800#1"/>
    <trip id="veh203" type="veh_passenger" depart="5740.13" departLane="best" departSpeed="max" from="105504010#0" to="105504010#5"/>
    <trip id="veh204" type="veh_passenger" depart="5768.41" departLane="best" departSpeed="max" from="-105504010#6" to="-105504010#3"/>
    <trip id="veh206" type="veh_passenger" depart="5824.96" departLane="best" departSpeed="max" from="105504010#0" to="105504010#5"/>
    <trip id="veh207" type="veh_passenger" depart="5853.24" departLane="best" departSpeed="max" from="105504010#0" to="105504010#5"/>
    <trip id="veh208" type="veh_passenger" depart="5881.52" departLane="best" departSpeed="max" from="39167800#0" to="-105504010#3"/>
    <trip id="veh209" type="veh_passenger" depart="5909.79" departLane="best" from="-105504010#4" to="-105504010#3"/>
    <trip id="veh210" type="veh_passenger" depart="5938.07" departLane="best" departSpeed="max" from="105504010#0" to="105504010#5"/>
    <trip id="veh211" type="veh_passenger" depart="5966.35" departLane="best" from="105504010#4" to="40274873"/>
    <trip id="veh212" type="veh_passenger" depart="5994.62" departLane="best" departSpeed="max" from="-105504010#6" to="-105504010#3"/>
    <trip id="veh213" type="veh_passenger" depart="6022.90" departLane="best" departSpeed="max" from="105504010#0" to="105504010#5"/>
    <trip id="veh214" type="veh_passenger" depart="6051.17" departLane="best" departSpeed="max" from="39167800#0" to="105504010#5"/>
    <trip id="veh215" type="veh_passenger" depart="6079.45" departLane="best" departSpeed="max" from="-105504010#6" to="40274873"/>
    <trip id="veh216" type="veh_passenger" depart="6107.73" departLane="best" from="105504010#4" to="-39167800#1"/>
    <trip id="veh217" type="veh_passenger" depart="6136.00" departLane="best" departSpeed="max" from="-40274873" to="-39167800#1"/>
    <trip id="veh218" type="veh_passenger" depart="6164.28" departLane="best" departSpeed="max" from="105504010#0" to="-105504010#4"/>
    <trip id="veh219" type="veh_passenger" depart="6192.56" departLane="best" departSpeed="max" from="39167800#0" to="105504010#5"/>
    <trip id="veh220" type="veh_passenger" depart="6220.83" departLane="best" departSpeed="max" from="-105504010#6" to="40274873"/>
    <trip id="veh221" type="veh_passenger" depart="6249.11" departLane="best" departSpeed="max" from="105504010#0" to="105504010#5"/>
    <trip id="veh222" type="veh_passenger" depart="6277.39" departLane="best" departSpeed="max" from="105504010#0" to="-39167800#1"/>
    <trip id="veh223" type="veh_passenger" depart="6305.66" departLane="best" departSpeed="max" from="105504010#0" to="40274873"/>
    <trip id="veh224" type="veh_passenger" depart="6333.94" departLane="best" departSpeed="max" from="105504010#0" to="-39167800#1"/>
    <trip id="veh225" type="veh_passenger" depart="6362.22" departLane="best" departSpeed="max" from="-40274873" to="105504010#5"/>
    <trip id="veh226" type="veh_passenger" depart="6390.49" departLane="best" departSpeed="max" from="39167800#0" to="-105504010#3"/>
    <trip id="veh227" type="veh_passenger" depart="6418.77" departLane="best" departSpeed="max" from="39167800#0" to="-105504010#3"/>
    <trip id="veh228" type="veh_passenger" depart="6447.05" departLane="best" departSpeed="max" from="-40274873" to="105504010#5"/>
    <trip id="veh229" type="veh_passenger" depart="6475.32" departLane="best" departSpeed="max" from="-40274873" to="-105504010#3"/>
    <trip id="veh230" type="veh_passenger" depart="6503.60" departLane="best" departSpeed="max" from="39167800#0" to="-105504010#3"/>